Version 4
SHEET 1 1080 680
WIRE 112 16 16 16
WIRE 512 16 176 16
WIRE -96 96 -144 96
WIRE 16 96 16 16
WIRE 16 96 -16 96
WIRE 48 96 16 96
WIRE 160 96 128 96
WIRE 384 96 160 96
WIRE 512 112 512 16
WIRE 512 112 448 112
WIRE 560 112 512 112
WIRE 608 112 560 112
WIRE 736 112 688 112
WIRE 800 112 736 112
WIRE 384 128 320 128
WIRE -144 144 -144 96
WIRE 160 160 160 96
WIRE 320 176 320 128
WIRE 384 176 320 176
WIRE 512 176 512 112
WIRE 512 176 464 176
WIRE 736 176 736 112
WIRE -144 256 -144 224
WIRE 160 256 160 224
WIRE 320 272 320 256
WIRE 736 272 736 240
WIRE -144 336 -144 320
WIRE 0 336 0 320
WIRE -144 352 -144 336
WIRE 0 352 0 336
FLAG -144 256 0
FLAG 160 256 0
FLAG 320 272 0
FLAG -144 432 0
FLAG 0 432 0
FLAG -144 336 +Vcc
FLAG 0 336 -Vcc
FLAG 560 112 Vout1
FLAG 736 272 0
FLAG 800 112 Vout2
FLAG 416 144 +Vcc
FLAG 416 80 -Vcc
SYMBOL res 0 80 R90
WINDOW 0 0 56 VBottom 2
WINDOW 3 32 56 VTop 2
SYMATTR InstName R1
SYMATTR Value 10K
SYMBOL res 144 80 R90
WINDOW 0 0 56 VBottom 2
WINDOW 3 32 56 VTop 2
SYMATTR InstName R2
SYMATTR Value 10K
SYMBOL voltage -144 128 R0
SYMATTR InstName V1
SYMATTR Value AC 1
SYMBOL cap 176 0 R90
WINDOW 0 0 32 VBottom 2
WINDOW 3 32 32 VTop 2
SYMATTR InstName C1
SYMATTR Value 0.15µ
SYMBOL cap 144 160 R0
SYMATTR InstName C2
SYMATTR Value 0.15µ
SYMBOL res 304 160 R0
SYMATTR InstName R3
SYMATTR Value 1K
SYMBOL res 480 160 R90
WINDOW 0 50 11 VBottom 2
WINDOW 3 32 56 VTop 2
SYMATTR InstName R4
SYMATTR Value 1K
SYMBOL voltage -144 336 R0
WINDOW 123 0 0 Left 0
WINDOW 39 0 0 Left 0
SYMATTR InstName V2
SYMATTR Value +15
SYMBOL voltage 0 336 R0
WINDOW 123 0 0 Left 0
WINDOW 39 0 0 Left 0
SYMATTR InstName V3
SYMATTR Value -15
SYMBOL res 704 96 R90
WINDOW 0 0 56 VBottom 2
WINDOW 3 32 56 VTop 2
SYMATTR InstName R5
SYMATTR Value 1K
SYMBOL cap 720 176 R0
SYMATTR InstName C3
SYMATTR Value 0.352µ
SYMBOL OpAmps\\LT1007 416 176 M180
SYMATTR InstName U2
TEXT -120 272 Left 2 !.ac dec 100 1m 1G
